ckt7_Mon_rfi_18_der050.csv
fault_bus,fault_type,fault_R_ohm,Va_mag_pu,Va_ang_deg,Vb_mag_pu,Vb_ang_deg,Vc_mag_pu,Vc_ang_deg,Ia_mag_A,Ia_ang_deg,Ib_mag_A,Ib_ang_deg,Ic_mag_A,Ic_ang_deg
318412,SLG,0,0.586371,-77.7726,1.568606,-127.8704,1.046728,102.6892,742.6972,-95.3998,1256.4527,-144.4869,865.5902,85.8519
318412,SLG,10,1.348921,-18.7209,1.345971,-138.3388,1.339957,101.1751,1065.1353,-36.0492,1062.1359,-155.6547,1054.3358,83.8567
318412,SLG,20,1.348794,-18.6997,1.346071,-138.343,1.339992,101.1809,1065.0242,-36.028,1062.2191,-155.6595,1054.369,83.863
318412,SLG,30,1.348751,-18.6927,1.346104,-138.3444,1.340003,101.1829,1064.9871,-36.021,1062.2468,-155.661,1054.3801,83.8651
318412,SLG,40,1.348729,-18.6892,1.346121,-138.3451,1.340009,101.1838,1064.9685,-36.0175,1062.2607,-155.6618,1054.3856,83.8661
318412,LL,0,0.504886,-109.1797,0.36999,-150.9432,1.186828,110.831,633.6985,-127.4655,473.6752,-167.2976,925.2488,94.7458
318412,LL,10,1.34885,-18.7325,1.346227,-138.3813,1.339754,101.1836,1065.0677,-36.0618,1062.3583,-155.6973,1054.167,83.8662
318412,LL,20,1.348758,-18.7056,1.346199,-138.3643,1.33989,101.1852,1064.9903,-36.0343,1062.3304,-155.6807,1054.2845,83.8677
318412,LL,30,1.348727,-18.6966,1.346189,-138.3586,1.339936,101.1857,1064.9645,-36.0252,1062.3211,-155.6752,1054.3237,83.8683
318412,LL,40,1.348712,-18.6921,1.346185,-138.3557,1.339959,101.1859,1064.9516,-36.0206,1062.3164,-155.6725,1054.3433,83.8685
318412,3LG,0,0.19587,-91.9581,0.195316,148.2036,0.195072,27.727,236.2077,-108.9315,235.3854,131.2209,234.6901,10.7423
318412,3LG,10,1.34865,-18.7242,1.346155,-138.3928,1.340011,101.1411,1064.9007,-36.0525,1062.2904,-155.7098,1054.3901,83.8237
318412,3LG,20,1.348658,-18.7014,1.346163,-138.37,1.340019,101.1639,1064.9069,-36.0297,1062.2965,-155.687,1054.3962,83.8465
318412,3LG,30,1.34866,-18.6938,1.346166,-138.3624,1.340022,101.1715,1064.9089,-36.0221,1062.2985,-155.6794,1054.3982,83.8541
318412,3LG,40,1.348662,-18.69,1.346167,-138.3586,1.340023,101.1753,1064.9099,-36.0183,1062.2994,-155.6756,1054.3992,83.8579
243937,SLG,0,0.879858,-96.869,2.158291,-153.0628,1.705163,132.356,936.9522,-115.7628,1753.2518,-169.4191,1327.4815,117.4555
243937,SLG,10,1.342615,-19.0529,1.352575,-138.4072,1.338029,101.4529,1060.1741,-36.4036,1067.7019,-155.7114,1052.45,84.1452
243937,SLG,20,1.345629,-18.8661,1.349384,-138.3772,1.339017,101.3201,1062.5347,-36.2056,1065.0112,-155.6877,1053.4164,84.0075
243937,SLG,30,1.346639,-18.8037,1.348315,-138.3672,1.339351,101.2757,1063.3255,-36.1394,1064.1103,-155.6799,1053.7428,83.9614
243937,SLG,40,1.347145,-18.7724,1.34778,-138.3622,1.339519,101.2535,1063.7216,-36.1063,1063.6591,-155.6759,1053.9068,83.9384
243937,LL,0,0.462417,-129.5467,0.462269,-140.0026,1.775804,107.5122,595.4736,-148.4284,597.9934,-158.1901,1396.8554,91.3661
243937,LL,10,1.340619,-18.7889,1.34646,-138.7797,1.344388,101.3931,1058.2192,-36.1301,1062.9077,-156.1062,1057.7978,84.0982
243937,LL,20,1.34462,-18.7337,1.346321,-138.5644,1.342214,101.2908,1061.5476,-36.0685,1062.6105,-155.8862,1056.1046,83.9847
243937,LL,30,1.345963,-18.7153,1.346272,-138.4923,1.341487,101.2563,1062.665,-36.048,1062.5088,-155.8125,1055.5382,83.9464
243937,LL,40,1.346637,-18.7062,1.346247,-138.4561,1.341122,101.239,1063.2254,-36.0377,1062.4577,-155.7755,1055.2546,83.9272
243937,3LG,0,0.048452,-75.4595,0.048318,164.6893,0.048261,44.2336,58.4187,-92.4364,58.2215,147.704,58.0511,27.2474
243937,3LG,10,1.346962,-18.8468,1.344472,-138.5159,1.338343,101.0184,1063.5673,-36.1751,1060.9623,-155.8328,1053.0772,83.7009
243937,3LG,20,1.347814,-18.7627,1.345322,-138.4316,1.339186,101.1025,1064.2408,-36.091,1061.6331,-155.7486,1053.7404,83.785
243937,3LG,30,1.348098,-18.7347,1.345605,-138.4035,1.339466,101.1306,1064.465,-36.063,1061.8564,-155.7204,1053.9611,83.8131
243937,3LG,40,1.34824,-18.7207,1.345747,-138.3894,1.339606,101.1446,1064.577,-36.049,1061.9679,-155.7064,1054.0714,83.8271
157347,SLG,0,0.663307,-39.1393,1.711671,-149.2381,1.529606,117.0014,801.3345,-58.6958,1374.4128,-166.2717,1195.2983,100.7965
157347,SLG,10,1.344355,-19.3868,1.354174,-138.228,1.333582,101.421,1061.8259,-36.7425,1068.9152,-155.5169,1048.7277,84.103
157347,SLG,20,1.346535,-19.0349,1.350184,-138.2858,1.336762,101.3032,1063.3903,-36.377,1065.6169,-155.5885,1051.5297,83.9853
157347,SLG,30,1.347251,-18.9166,1.348849,-138.3059,1.337841,101.2642,1063.9026,-36.2541,1064.5138,-155.6133,1052.4793,83.9464
157347,SLG,40,1.347607,-18.8573,1.34818,-138.3161,1.338384,101.2448,1064.157,-36.1925,1063.9616,-155.6258,1052.9571,83.9271
157347,LL,0,0.578527,-25.3362,0.741381,-147.8807,1.650132,103.2712,676.8083,-43.0063,910.0346,-165.6247,1304.1159,86.5557
157347,LL,10,1.337938,-19.1551,1.349659,-138.937,1.34157,101.5406,1056.1558,-36.5117,1065.6537,-156.2535,1055.3094,84.2512
157347,LL,20,1.343273,-18.9195,1.34799,-138.6431,1.340757,101.3657,1060.512,-36.2621,1064.04,-155.9597,1054.8182,84.0623
157347,LL,30,1.345064,-18.8398,1.3474,-138.5447,1.340504,101.3065,1061.974,-36.1777,1063.4747,-155.8614,1054.6709,83.9984
157347,LL,40,1.345962,-18.7997,1.347099,-138.4954,1.340381,101.2767,1062.7069,-36.1352,1063.1869,-155.8122,1054.6004,83.9663
157347,3LG,0,0.669995,-22.7456,0.667942,-142.5997,0.667045,96.9145,805.9591,-39.6958,802.924,-159.5595,800.1054,79.9566
157347,3LG,10,1.345793,-19.036,1.343322,-138.7051,1.337187,100.8298,1062.6441,-36.3643,1060.0548,-156.022,1052.1674,83.5123
157347,3LG,20,1.34724,-18.8579,1.344757,-138.5267,1.338617,101.0077,1063.7868,-36.1862,1061.1871,-155.8437,1053.293,83.6902
157347,3LG,30,1.347717,-18.7982,1.34523,-138.467,1.339089,101.0672,1064.164,-36.1265,1061.5607,-155.784,1053.6646,83.7498
157347,3LG,40,1.347955,-18.7684,1.345466,-138.4371,1.339325,101.0971,1064.3519,-36.0967,1061.7469,-155.7541,1053.8497,83.7796
298162,SLG,0,0.629693,-89.8495,1.955608,-144.0483,1.352444,126.5376,822.4413,-108.4776,1581.4154,-160.5229,1042.1927,111.3628
298162,SLG,10,1.34738,-20.454,1.359926,-137.7439,1.320826,101.3834,1065.0133,-37.8285,1073.4219,-154.9866,1037.9647,84.0387
298162,SLG,20,1.34814,-19.5718,1.352977,-138.0382,1.330333,101.2794,1065.0585,-36.9234,1067.7936,-155.3174,1046.1093,83.9477
298162,SLG,30,1.348342,-19.2753,1.350691,-138.1395,1.333544,101.2472,1065.0315,-36.6192,1065.9471,-155.4312,1048.8574,83.9202
298162,SLG,40,1.348433,-19.1266,1.349555,-138.1908,1.335157,101.2316,1065.0099,-36.4666,1065.0297,-155.4888,1050.2376,83.9069
298162,LL,0,0.402825,-139.2211,0.402167,-141.3115,1.64685,109.9006,526.1818,-157.8251,525.8168,-159.7526,1297.6076,93.8593
298162,LL,10,1.328233,-20.2747,1.357851,-139.528,1.334658,101.9987,1048.5723,-37.6787,1072.8383,-156.8186,1049.1055,84.7317
298162,LL,20,1.338444,-19.4843,1.35224,-138.9361,1.337108,101.5938,1056.74,-36.8507,1067.7564,-156.2394,1051.552,84.301
298162,LL,30,1.341851,-19.2175,1.350268,-138.7394,1.338028,101.4583,1059.4644,-36.5711,1065.9799,-156.0471,1052.4564,84.1572
298162,LL,40,1.343554,-19.0834,1.349263,-138.6412,1.338507,101.3905,1060.8267,-36.4307,1065.0761,-155.9512,1052.9256,84.0852
298162,3LG,0,0.008605,-84.6271,0.008584,155.5102,0.008569,35.1213,10.376,-101.6038,10.3446,138.5286,10.3072,18.1388
298162,3LG,10,1.341394,-19.6681,1.339021,-139.3363,1.332824,100.2012,1059.1714,-36.9966,1056.6634,-156.6531,1048.732,82.8839
298162,3LG,20,1.345071,-19.1747,1.342637,-138.843,1.336465,100.6927,1062.0742,-36.5031,1059.5152,-156.1599,1051.5979,83.3753
298162,3LG,30,1.346278,-19.0096,1.343824,-138.6781,1.337661,100.8571,1063.0276,-36.338,1060.4516,-155.995,1052.5396,83.5396
298162,3LG,40,1.346878,-18.927,1.344414,-138.5955,1.338256,100.9394,1063.5016,-36.2553,1060.917,-155.9124,1053.0078,83.6219
165448,SLG,0,0.622216,-90.0079,1.962972,-143.8292,1.344936,126.8501,813.7771,-108.6329,1587.43,-160.3063,1036.3181,111.699
165448,SLG,10,1.348073,-20.5868,1.360537,-137.674,1.319092,101.3693,1065.6718,-37.963,1073.8887,-154.9106,1036.5125,84.0204
165448,SLG,20,1.348512,-19.6388,1.353261,-138.0021,1.329459,101.2712,1065.408,-36.9913,1068.007,-155.2783,1045.3781,83.9374
165448,SLG,30,1.348595,-19.3201,1.350875,-138.1153,1.332959,101.2415,1065.269,-36.6646,1066.0847,-155.4049,1048.3689,83.9131
165448,SLG,40,1.348625,-19.1602,1.349691,-138.1726,1.334718,101.2273,1065.1898,-36.5007,1065.1312,-155.469,1049.8709,83.9015
165448,LL,0,0.400058,-139.8761,0.399512,-141.8261,1.64861,110.1231,523.285,-158.4755,523.0204,-160.2706,1299.2636,94.0908
165448,LL,10,1.327202,-20.424,1.359059,-139.5934,1.333559,102.0575,1047.7825,-37.8343,1073.8789,-156.8801,1048.1352,84.7929
165448,LL,20,1.337942,-19.5602,1.352873,-138.9679,1.336518,101.6227,1056.357,-36.9295,1068.299,-156.2691,1051.0327,84.3309
165448,LL,30,1.34152,-19.2683,1.350696,-138.7604,1.337625,101.4774,1059.212,-36.624,1066.3465,-156.0668,1052.1026,84.1769
165448,LL,40,1.343307,-19.1216,1.349586,-138.6569,1.338202,101.4047,1060.6384,-36.4705,1065.3528,-155.9658,1052.6574,84.0999
165448,3LG,0,0.007971,-85.0164,0.007952,155.1198,0.007937,34.7378,9.6115,-101.9932,9.5828,138.1385,9.5476,17.7556
165448,3LG,10,1.340903,-19.7473,1.338546,-139.4151,1.332334,100.1227,1058.7837,-37.0758,1056.2893,-156.732,1048.3459,82.8054
165448,3LG,20,1.344832,-19.2145,1.342407,-138.8827,1.336226,100.6532,1061.886,-36.5429,1059.3338,-156.1996,1051.4101,83.3358
165448,3LG,30,1.346121,-19.0362,1.343672,-138.7045,1.337503,100.8307,1062.9034,-36.3646,1060.3318,-156.0214,1052.4156,83.5133
165448,3LG,40,1.346761,-18.9469,1.344301,-138.6153,1.338138,100.9196,1063.409,-36.2753,1060.8277,-155.9322,1052.9152,83.6022
165449,SLG,0,0.556625,-94.4025,2.031533,-143.6928,1.342221,129.7485,739.5329,-113.018,1644.9175,-160.198,1036.1804,114.8285
165449,SLG,10,1.356876,-21.9273,1.36719,-136.9495,1.300962,101.2263,1073.7914,-39.3185,1078.9693,-154.1239,1021.3481,83.8323
165449,SLG,20,1.353285,-20.3139,1.356207,-137.6264,1.320352,101.1836,1069.7654,-37.6741,1070.2095,-154.8709,1037.7743,83.8265
165449,SLG,30,1.351861,-19.7711,1.352751,-137.8619,1.326883,101.1796,1068.2408,-37.1208,1067.4744,-155.1303,1043.2978,83.8353
165449,SLG,40,1.351105,-19.4989,1.351063,-137.9814,1.330159,101.1794,1067.4437,-36.8432,1066.1434,-155.2619,1046.0672,83.8418
165449,LL,0,0.36986,-147.6339,0.369948,-148.8678,1.692145,111.2381,491.5149,-166.2205,491.8265,-167.3381,1336.8657,95.277
165449,LL,10,1.317911,-21.9422,1.373387,-140.2502,1.322399,102.6896,1040.7455,-39.4172,1086.0873,-157.4955,1038.2542,85.4511
165449,LL,20,1.333605,-20.3324,1.360342,-139.2802,1.330364,101.926,1053.0912,-37.7338,1074.6361,-156.5594,1045.6136,84.6449
165449,LL,30,1.338702,-19.7859,1.355738,-138.9648,1.333397,101.6763,1057.0949,-37.1629,1070.6186,-156.2561,1048.3851,84.3824
165449,LL,40,1.341222,-19.5108,1.353391,-138.8087,1.334984,101.5527,1059.0737,-36.8757,1068.5741,-156.1062,1049.8304,84.2526
165449,3LG,0,0.004627,-89.6019,0.004619,150.5131,0.004608,30.215,5.5796,-106.5802,5.5664,133.5343,5.5428,13.2367
165449,3LG,10,1.337423,-20.5347,1.335302,-140.1972,1.328834,99.3459,1056.0385,-37.8636,1053.7345,-157.5138,1045.5838,82.0286
165449,3LG,20,1.343201,-19.6106,1.340891,-139.2758,1.334576,100.2625,1060.5996,-36.9392,1058.1403,-156.5925,1050.1074,82.9451
165449,3LG,30,1.345058,-19.3008,1.342685,-138.9671,1.336426,100.5697,1062.0652,-36.6293,1059.555,-156.2838,1051.5648,83.2523
165449,3LG,40,1.345973,-19.1456,1.34357,-138.8124,1.337338,100.7236,1062.7876,-36.474,1060.2522,-156.1292,1052.2839,83.4062
287274,SLG,0,0.554964,-84.238,2.019044,-142.1969,1.28924,129.2747,730.0733,-103.3229,1631.9074,-158.7208,993.3309,114.2104
287274,SLG,10,1.356215,-22.858,1.372949,-136.462,1.288065,101.1693,1074.0049,-40.265,1083.5655,-153.5951,1010.5184,83.7512
287274,SLG,20,1.353388,-20.7906,1.358707,-137.3644,1.313772,101.1366,1070.2251,-38.1588,1072.1692,-154.5873,1032.2617,83.7663
287274,SLG,30,1.352029,-20.0914,1.354324,-137.6834,1.322473,101.1441,1068.6283,-37.4464,1068.698,-154.9372,1039.6058,83.7908
287274,SLG,40,1.35127,-19.7399,1.352207,-137.8461,1.326843,101.1513,1067.7651,-37.0884,1067.0288,-155.1156,1043.2925,83.8068
287274,LL,0,0.310497,-120.8284,0.431414,-159.8141,1.684322,111.5153,407.6951,-142.1749,564.5141,-177.2335,1330.4285,95.4873
287274,LL,10,1.304375,-22.968,1.377353,-140.7323,1.315704,103.1776,1030.1293,-40.4888,1089.9062,-157.9563,1032.3343,85.9659
287274,LL,20,1.327117,-20.8666,1.362693,-139.5081,1.326331,102.1585,1048.0167,-38.2907,1076.8326,-156.775,1042.0774,84.8884
287274,LL,30,1.334448,-20.1466,1.357381,-139.1134,1.330557,101.8281,1053.7715,-37.5387,1072.1405,-156.3961,1045.9015,84.541
287274,LL,40,1.33806,-19.7831,1.354649,-138.9188,1.332798,101.6652,1056.6046,-37.1592,1069.7361,-156.2098,1047.9209,84.3699
287274,3LG,0,0.156822,-55.4779,0.156574,-175.3845,0.156223,64.372,189.094,-72.4574,188.7085,167.6366,187.9163,47.396
287274,3LG,10,1.32884,-21.0576,1.32697,-140.7175,1.320311,98.8339,1049.2619,-38.387,1047.1663,-158.0337,1038.87,81.5169
287274,3LG,20,1.338985,-19.8801,1.336799,-139.5434,1.330377,99.9986,1057.2712,-37.2089,1054.9144,-156.86,1046.7994,82.6813
287274,3LG,30,1.342265,-19.4822,1.339975,-139.1471,1.333642,100.392,1059.8608,-36.8109,1057.4184,-156.4638,1049.3715,83.0747
287274,3LG,40,1.343886,-19.2823,1.341544,-138.9481,1.335256,100.5897,1061.14,-36.6109,1058.6551,-156.2648,1050.6436,83.2724
283954,SLG,0,0.523139,-86.735,2.038541,-142.7163,1.30828,130.0896,693.5043,-105.9283,1648.8552,-159.2596,1009.5634,115.106
283954,SLG,10,1.362008,-23.6595,1.377251,-136.0323,1.277097,101.0836,1079.2977,-41.0732,1086.892,-153.1281,1001.3437,83.6371
283954,SLG,20,1.356734,-21.1939,1.360378,-137.1357,1.308294,101.0748,1073.2306,-38.5655,1073.4104,-154.3396,1027.6938,83.6895
283954,SLG,30,1.354361,-20.3606,1.355323,-137.5282,1.318829,101.0988,1070.7122,-37.7179,1069.4247,-154.7693,1036.5713,83.7354
283954,SLG,40,1.353057,-19.9419,1.352912,-137.7288,1.324115,101.1158,1069.3582,-37.2921,1067.5351,-154.9887,1041.0216,83.7637
283954,LL,0,0.287671,-121.773,0.419965,-164.8096,1.708706,111.4691,380.4139,-143.7971,552.4824,177.8906,1351.3458,95.4583
283954,LL,10,1.299055,-23.8925,1.386682,-141.1506,1.309384,103.5895,1026.1381,-41.4539,1097.8287,-158.35,1026.7085,86.3974
283954,LL,20,1.324942,-21.3421,1.367578,-139.6969,1.322523,102.3451,1046.4166,-38.7859,1080.9528,-156.95,1038.7268,85.0818
283954,LL,30,1.333116,-20.4662,1.360672,-139.2343,1.327884,101.9474,1052.8001,-37.8712,1074.9107,-156.5075,1043.5577,84.664
283954,LL,40,1.337106,-20.0236,1.357129,-139.0077,1.330745,101.7526,1055.9129,-37.4093,1071.8206,-156.2913,1046.1233,84.46
283954,3LG,0,0.165295,-57.7831,0.165111,-177.7115,0.164724,62.1053,199.3084,-74.7642,199.009,165.3103,198.1418,45.1322
283954,3LG,10,1.327248,-21.5373,1.325638,-141.1911,1.318679,98.3669,1048.0079,-38.8672,1046.1212,-158.5069,1037.5771,81.0499
283954,3LG,20,1.338318,-20.1242,1.336255,-139.7838,1.329672,99.7608,1056.7464,-37.4532,1054.4879,-157.1002,1046.2399,82.4435
283954,3LG,30,1.341851,-19.6459,1.339641,-139.3082,1.333198,100.2326,1059.535,-36.9747,1057.1563,-156.6247,1049.0191,82.9152
283954,3LG,40,1.343586,-19.4054,1.341304,-139.0691,1.334934,100.4698,1060.9049,-36.734,1058.467,-156.3858,1050.3872,83.1524
283956,SLG,0,0.753279,-70.1475,1.939603,-139.4427,1.198073,125.5182,960.3376,-88.6032,1560.3463,-155.854,915.739,109.9027
283956,SLG,10,1.36125,-23.5727,1.376864,-136.0784,1.27823,101.0959,1078.6214,-40.986,1086.597,-153.1782,1002.2913,83.6527
283956,SLG,20,1.356516,-21.1715,1.36031,-137.1482,1.308581,101.0791,1073.0379,-38.5431,1073.3618,-154.3531,1027.9326,83.6946
283956,SLG,30,1.35426,-20.3505,1.355298,-137.5338,1.318958,101.1009,1070.6232,-37.7078,1069.4069,-154.7754,1036.6779,83.7379
283956,SLG,40,1.352999,-19.9362,1.352899,-137.732,1.324188,101.117,1069.3073,-37.2863,1067.5262,-154.9922,1041.0819,83.7651
283956,LL,0,0.502033,-79.7651,0.662541,-166.4554,1.611035,111.6675,618.2639,-100.1623,835.7722,177.161,1266.0309,95.5473
283956,LL,10,1.299831,-23.7841,1.385032,-141.1136,1.310295,103.5374,1026.7172,-41.34,1096.4541,-158.3164,1027.5157,86.3429
283956,LL,20,1.325107,-21.3133,1.367144,-139.6892,1.322803,102.3333,1046.5377,-38.7558,1080.5929,-156.9432,1038.9725,85.0696
283956,LL,30,1.333185,-20.4531,1.360476,-139.2311,1.328017,101.9424,1052.8506,-37.8575,1074.7488,-156.5048,1043.6733,84.6589
283956,LL,40,1.337145,-20.0162,1.357018,-139.0059,1.330822,101.7498,1055.9405,-37.4015,1071.7292,-156.2898,1046.1902,84.4571
283956,3LG,0,0.465258,-54.666,0.464816,-174.5633,0.463376,65.2103,561.0563,-71.6483,560.2683,168.4587,557.4077,48.2334
283956,3LG,10,1.327311,-21.4967,1.32568,-141.151,1.318749,98.4064,1048.0575,-38.8265,1046.1542,-158.4669,1037.6323,81.0894
283956,3LG,20,1.338331,-20.1135,1.336263,-139.7734,1.329687,99.7712,1056.7566,-37.4426,1054.4941,-157.0898,1046.2521,82.4539
283956,3LG,30,1.341857,-19.641,1.339644,-139.3034,1.333205,100.2373,1059.5396,-36.9698,1057.1592,-156.62,1049.0246,82.92
283956,3LG,40,1.34359,-19.4026,1.341306,-139.0664,1.334938,100.4725,1060.9077,-36.7312,1058.4689,-156.383,1050.3906,83.1551
189963,SLG,0,0.293007,-97.1825,2.126708,-142.7399,1.317352,133.8127,420.2048,-117.5589,1723.4164,-159.4335,1022.0711,119.1576
189963,SLG,10,1.33978,-26.6581,1.400294,-134.5995,1.235555,101.0849,1063.8896,-44.1354,1105.8769,-151.5756,966.3056,83.5865
189963,SLG,20,1.347336,-22.7355,1.369878,-136.3264,1.286986,100.9769,1066.9146,-40.1397,1081.1172,-153.4642,1009.7778,83.5596
189963,SLG,30,1.348505,-21.3966,1.361133,-136.9696,1.304557,101.0119,1066.831,-38.7758,1074.1023,-154.1656,1024.5828,83.6261
189963,SLG,40,1.348821,-20.7219,1.357063,-137.303,1.313393,101.0426,1066.5733,-38.0885,1070.8623,-154.5288,1032.0199,83.6733
189963,LL,0,0.178253,-165.4058,0.23421,-164.7044,1.794136,111.7986,264.0647,174.414,331.2806,175.665,1427.6572,95.7245
189963,LL,10,1.235201,-27.1444,1.382323,-142.8607,1.293687,105.3749,975.59,-44.8673,1096.8204,-160.0143,1012.7776,88.3061
189963,LL,20,1.294182,-23.0517,1.366603,-140.4802,1.310966,103.1651,1022.1137,-40.5709,1081.3703,-157.7041,1028.6339,85.9508
189963,LL,30,1.312945,-21.622,1.360209,-139.7383,1.319411,102.4713,1036.8737,-39.076,1075.3251,-156.9905,1036.1861,85.2174
189963,LL,40,1.322115,-20.8961,1.356839,-139.3785,1.324114,102.1362,1044.0791,-38.3182,1072.1715,-156.6459,1040.3639,84.8644
189963,3LG,0,0.032383,-12.4066,0.032377,-132.4177,0.032383,107.5791,39.0431,-29.3938,39.033,-149.4028,38.9557,90.6143
189963,3LG,10,1.282843,-23.1581,1.282426,-142.798,1.27472,96.8103,1012.9449,-40.4903,1012.0572,-160.1127,1002.9518,79.4945
189963,3LG,20,1.316028,-20.9779,1.314549,-140.6262,1.307493,98.94,1039.1501,-38.3081,1037.3755,-157.9418,1028.7682,81.6231
189963,3LG,30,1.326988,-20.2247,1.325159,-139.8785,1.318382,99.6757,1047.8023,-37.5542,1045.7387,-157.1945,1037.3469,82.3586
189963,3LG,40,1.33244,-19.8431,1.33044,-139.5002,1.323812,100.0485,1052.1064,-37.1723,1049.9015,-156.8164,1041.6257,82.7312
181977,SLG,0,0.360854,-82.6625,2.08119,-141.9811,1.285619,131.9427,492.5659,-103.6472,1683.491,-158.6469,994.6969,117.0799
181977,SLG,10,1.343278,-27.2361,1.404484,-134.3174,1.22751,101.0644,1067.1722,-44.7177,1109.2216,-151.2679,959.5507,83.5471
181977,SLG,20,1.350031,-23.0476,1.371322,-136.1513,1.282692,100.9302,1069.3297,-40.4536,1082.2115,-153.2745,1006.1977,83.501
181977,SLG,30,1.35053,-21.6091,1.361912,-136.8459,1.301661,100.9726,1068.6268,-38.9895,1074.6696,-154.032,1022.1733,83.5784
181977,SLG,40,1.350428,-20.8828,1.357573,-137.2079,1.311213,101.0101,1067.9915,-38.2503,1071.2224,-154.4261,1030.2077,83.6342
181977,LL,0,0.14925,-108.1742,0.345729,-170.2311,1.762429,111.5072,199.8343,-138.0196,463.151,171.7739,1399.8992,95.3888
181977,LL,10,1.23035,-27.7703,1.389126,-143.242,1.291013,105.7341,971.8642,-45.5263,1102.6456,-160.3812,1010.2904,88.6878
181977,LL,20,1.292502,-23.4206,1.370646,-140.6442,1.308242,103.3268,1020.881,-40.9559,1084.7791,-157.8578,1026.2228,86.1196
181977,LL,30,1.31204,-21.8791,1.363002,-139.8401,1.317306,102.5716,1036.2305,-39.3437,1077.6688,-157.0847,1034.3374,85.3213
181977,LL,40,1.321523,-21.0929,1.358963,-139.4519,1.322431,102.2082,1043.6685,-38.5228,1073.9493,-156.7133,1038.8918,84.9386
181977,3LG,0,0.176233,-45.7099,0.176251,-165.6952,0.176135,74.2902,212.4852,-62.6975,212.4789,177.3222,211.876,57.3245
181977,3LG,10,1.28211,-23.4986,1.28194,-143.1341,1.273987,96.4818,1012.3682,-40.8312,1011.6803,-160.4485,1002.3674,79.1662
181977,3LG,20,1.315761,-21.1699,1.314396,-140.8143,1.307182,98.7543,1038.9415,-38.5004,1037.2574,-158.1297,1028.5189,81.4375
181977,3LG,30,1.326841,-20.3576,1.325083,-140.0084,1.318195,99.5469,1047.6882,-37.6873,1045.6805,-157.3243,1037.1968,82.2298
181977,3LG,40,1.332343,-19.9446,1.330394,-139.5994,1.323681,99.95,1052.0313,-37.274,1049.8664,-156.9155,1041.5201,82.6328
181924,SLG,0,0.182509,-108.2684,2.141661,-145.2163,1.411242,133.86,291.119,-129.3762,1738.2104,-162.0104,1101.264,119.173
181924,SLG,10,1.355931,-28.9759,1.415363,-133.438,1.203581,100.8994,1078.7621,-46.4623,1117.8697,-150.3124,939.5075,83.3181
181924,SLG,20,1.357734,-23.8682,1.374506,-135.6819,1.271551,100.7747,1076.1752,-41.2768,1084.5835,-152.7668,996.923,83.3121
181924,SLG,30,1.355937,-22.1434,1.363511,-136.5306,1.294477,100.8558,1073.395,-39.5256,1075.8002,-153.6915,1016.2049,83.4394
181924,SLG,40,1.354579,-21.2786,1.358575,-136.9711,1.305924,100.9181,1071.6394,-38.6474,1071.9013,-154.1707,1025.8178,83.5257
181924,LL,0,0.120421,-177.8933,0.133408,-176.7967,1.838991,109.7869,195.6498,161.4745,211.0771,162.581,1467.2886,93.6056
181924,LL,10,1.216716,-29.8651,1.411923,-144.2549,1.279795,106.8171,961.6842,-47.7245,1121.9877,-161.342,1000.1747,89.8376
181924,LL,20,1.288578,-24.4458,1.381681,-141.0355,1.300118,103.7403,1018.103,-42.0239,1094.0434,-158.2193,1019.0882,86.5504
181924,LL,30,1.310075,-22.552,1.370128,-140.0765,1.311531,102.8141,1034.8932,-40.0433,1083.6311,-157.3007,1029.2955,85.5718
181924,LL,40,1.320291,-21.593,1.364201,-139.6204,1.317996,102.3774,1042.856,-39.0422,1078.325,-156.8662,1035.0298,85.1126
181924,3LG,0,0.007648,-16.7151,0.007649,-136.6889,0.007646,103.295,9.221,-33.7033,9.2219,-153.6718,9.1973,86.3294
181924,3LG,10,1.279315,-24.5215,1.2796,-144.1343,1.270973,95.4885,1010.1725,-41.8552,1009.8431,-161.4476,999.9742,78.1729
181924,3LG,20,1.314923,-21.679,1.313694,-141.3095,1.306131,98.2574,1038.2881,-39.0098,1036.7054,-158.6244,1027.682,80.9404
181924,3LG,30,1.326414,-20.6958,1.324723,-140.3373,1.317608,99.2159,1047.357,-38.0258,1045.3968,-157.6528,1036.7285,81.8986
181924,3LG,40,1.332073,-20.1978,1.330165,-139.8455,1.323285,99.7019,1051.8226,-37.5273,1049.6857,-157.1613,1041.2038,82.3845
181993,SLG,0,0.150822,-113.8088,2.132819,-146.0162,1.439345,133.3062,254.1019,-134.6397,1731.815,-162.8475,1124.8328,118.585
181993,SLG,10,1.358479,-29.9469,1.42376,-133.1078,1.192038,100.9976,1081.5358,-47.4451,1124.7526,-149.9454,929.6705,83.3958
181993,SLG,20,1.360027,-24.3461,1.377599,-135.4806,1.265812,100.7706,1078.365,-41.7608,1087.0523,-152.545,992.0725,83.2949
181993,SLG,30,1.357686,-22.4592,1.365291,-136.3904,1.290705,100.8427,1075.0264,-39.8454,1077.1997,-153.5375,1013.0248,83.4172
181993,SLG,40,1.355972,-21.5141,1.359802,-136.8641,1.303121,100.9046,1072.9256,-38.886,1072.8558,-154.0533,1023.4577,83.5053
181993,LL,0,0.104089,177.8038,0.105271,176.958,1.845301,109.0977,176.2401,157.1953,177.7616,156.624,1473.3028,92.8844
181993,LL,10,1.206132,-30.8292,1.421576,-144.9664,1.27883,107.4026,953.3929,-48.745,1130.3947,-162.0365,998.9589,90.469
181993,LL,20,1.284779,-24.9534,1.386928,-141.3331,1.297673,103.9888,1015.1725,-42.5556,1098.5374,-158.5055,1016.8276,86.814
181993,LL,30,1.30791,-22.8924,1.373621,-140.2614,1.309562,102.9649,1033.2346,-40.3989,1086.6097,-157.4773,1027.509,85.7305
181993,LL,40,1.318807,-21.8486,1.366805,-139.7541,1.31641,102.4844,1041.7238,-39.3088,1080.5412,-156.9935,1033.6005,85.2248
181993,3LG,0,0.001128,-84.5078,0.001128,155.5117,0.001128,35.4702,1.3597,-101.4946,1.3595,138.5278,1.3564,18.5041
181993,3LG,10,1.277351,-25.0673,1.277819,-144.6708,1.268939,94.9547,1008.6262,-42.4014,1008.442,-161.9838,998.366,77.6391
181993,3LG,20,1.31423,-21.9609,1.313051,-141.5852,1.305346,97.9806,1037.7444,-39.2918,1036.1986,-158.8998,1027.06,80.6634
181993,3LG,30,1.326024,-20.8855,1.324354,-140.5227,1.317146,99.0292,1047.0518,-38.2155,1045.106,-157.838,1036.3624,81.7118
181993,3LG,40,1.331809,-20.3407,1.329912,-139.9851,1.322963,99.5611,1051.6159,-37.6702,1049.4859,-157.3008,1040.9487,82.2436
181994,SLG,0,0.123825,-116.6767,2.117388,-146.4163,1.451494,132.6019,221.2498,-137.6618,1719.532,-163.2824,1135.173,117.8404
181994,SLG,10,1.356908,-30.9926,1.432944,-132.8184,1.180813,101.153,1081.0248,-48.5072,1132.384,-149.6214,920.0218,83.5383
181994,SLG,20,1.360491,-24.8695,1.381061,-135.2885,1.260045,100.7848,1079.1022,-42.2925,1089.8665,-152.3323,987.1629,83.2982
181994,SLG,30,1.358273,-22.8067,1.367294,-136.254,1.286886,100.8395,1075.7366,-40.1984,1078.8083,-153.387,1009.783,83.4062
181994,SLG,40,1.356515,-21.774,1.361183,-136.7591,1.300275,100.8977,1073.5393,-39.15,1073.9568,-153.9376,1021.0451,83.4923
181994,LL,0,0.085366,174.4831,0.086512,173.5748,1.844375,108.6168,153.4611,153.7655,154.9308,153.1909,1473.1787,92.3726
181994,LL,10,1.191842,-31.8104,1.427355,-145.7911,1.27957,107.9902,942.0539,-49.7859,1135.7894,-162.849,999.2196,91.1085
181994,LL,20,1.279134,-25.49,1.390617,-141.6864,1.29568,104.2488,1010.7374,-43.1176,1101.8346,-158.8492,1014.9512,87.0922
181994,LL,30,1.304543,-23.2557,1.376139,-140.4824,1.307807,103.1233,1030.5983,-40.7781,1088.8412,-157.6912,1025.9027,85.8988
181994,LL,40,1.316435,-22.1225,1.368698,-139.9144,1.314954,102.597,1039.8702,-39.5943,1082.2132,-157.1482,1032.2801,85.3439
181994,3LG,0,0.001032,-85.4808,0.001032,154.5593,0.001031,34.5071,1.2438,-102.4683,1.2441,137.5765,1.2407,17.5407
181994,3LG,10,1.272429,-25.6745,1.273093,-145.2685,1.263975,94.3605,1004.7439,-43.0091,1004.7168,-162.581,994.4513,77.0448
181994,3LG,20,1.312059,-22.2796,1.310937,-141.8971,1.303087,97.6676,1036.0342,-39.6107,1034.5309,-159.2114,1025.2782,80.3503
181994,3LG,30,1.324654,-21.1011,1.323009,-140.7335,1.315704,98.817,1045.9727,-38.4312,1044.0441,-158.0486,1035.2251,81.4996
181994,3LG,40,1.330812,-20.5034,1.328928,-140.1443,1.321908,99.4007,1050.8308,-37.8331,1048.7093,-157.4598,1040.1164,82.0831
181891,SLG,0,0.400883,-56.7972,2.006938,-142.6001,1.305219,128.5775,515.602,-79.0994,1618.9681,-159.3581,1011.8055,113.2726
181891,SLG,10,1.360664,-29.1423,1.416573,-133.1289,1.196672,100.7339,1082.8708,-46.6214,1118.6877,-149.9869,933.9312,83.1283
181891,SLG,20,1.363137,-23.9955,1.373452,-135.4588,1.267679,100.6019,1080.7111,-41.3963,1083.5488,-152.5327,993.8427,83.1212
181891,SLG,30,1.360264,-22.2343,1.36232,-136.3703,1.291909,100.7207,1077.0062,-39.6102,1074.6902,-153.5239,1014.1755,83.2912
181891,SLG,40,1.3581,-21.3483,1.357485,-136.8473,1.304019,100.8094,1074.5707,-38.7121,1070.8993,-154.0415,1024.3182,83.4068
181891,LL,0,0.228594,-48.3313,0.430841,-156.98,1.727339,109.6924,250.9312,-71.5384,553.9281,-175.6394,1370.4871,93.3535
181891,LL,10,1.214908,-30.075,1.416328,-144.3902,1.277425,107.1052,960.3348,-47.9519,1125.6969,-161.4691,998.1134,90.1388
181891,LL,20,1.290097,-24.7269,1.386177,-141.0246,1.29553,103.8526,1019.5234,-42.3152,1097.6773,-158.1952,1015.2076,86.6616
181891,LL,30,1.311839,-22.7704,1.373416,-140.046,1.307816,102.8684,1036.4692,-40.2684,1086.2621,-157.2593,1026.1693,85.6227
181891,LL,40,1.321918,-21.7673,1.36674,-139.5883,1.314991,102.4089,1044.2909,-39.2214,1080.3468,-156.8253,1032.5062,85.1405
181891,3LG,0,0.316552,-30.255,0.316666,-150.125,0.315896,89.7573,381.7073,-47.2427,381.731,-167.1021,379.9701,72.786
181891,3LG,10,1.280148,-24.6081,1.280336,-144.2151,1.271662,95.3986,1010.8345,-41.9416,1010.4192,-161.5283,1000.5172,78.0826
181891,3LG,20,1.31591,-21.7724,1.314603,-141.3972,1.306968,98.1627,1039.0714,-39.1032,1037.4191,-158.7119,1028.34,80.8453
181891,3LG,30,1.327233,-20.7692,1.325475,-140.4063,1.318309,99.1414,1048.0068,-38.099,1045.9874,-157.7217,1037.2795,81.8239
181891,3LG,40,1.332752,-20.2569,1.330788,-139.9012,1.323869,99.6417,1052.3616,-37.5864,1050.1748,-157.217,1041.6634,82.3242
255335,SLG,0,0.094962,-110.1444,2.095467,-146.2893,1.443627,131.7735,182.9204,-134.6551,1701.1339,-163.1912,1129.0632,116.9555
255335,SLG,10,1.343105,-32.7945,1.450565,-132.3809,1.161557,101.5344,1071.2554,-50.3477,1147.2022,-149.1325,903.4036,83.9161
255335,SLG,20,1.356127,-25.8064,1.38804,-134.9553,1.249471,100.8437,1076.2637,-43.2486,1095.6387,-151.9643,978.1394,83.3441
255335,SLG,30,1.355972,-23.4355,1.371379,-136.0098,1.27977,100.851,1074.3297,-40.8401,1082.1543,-153.1182,1003.729,83.4072
255335,SLG,40,1.355021,-22.2467,1.364014,-136.5684,1.294933,100.8963,1072.6678,-39.6323,1076.2617,-153.7282,1016.507,83.4824
255335,LL,0,0.038142,179.7056,0.085534,173.4051,1.836815,108.2781,94.6828,153.0366,152.3114,152.4169,1467.5275,91.9875
255335,LL,10,1.156724,-33.3846,1.426619,-147.271,1.284198,109.0248,913.9417,-51.4698,1136.6968,-164.3194,1002.6669,92.2405
255335,LL,20,1.263694,-26.4212,1.392579,-142.3323,1.29292,104.745,998.4737,-44.0958,1104.1141,-159.4831,1012.3307,87.6268
255335,LL,30,1.294931,-23.8984,1.377715,-140.8867,1.304975,103.4298,1022.9808,-41.4502,1090.5545,-158.0858,1023.3199,86.2269
255335,LL,40,1.309502,-22.6112,1.369941,-140.2074,1.312497,102.8157,1034.3816,-40.1044,1083.5375,-157.4333,1030.0643,85.5772
255335,3LG,0,0.027567,-41.6366,0.027613,-161.5586,0.027563,78.4016,33.2391,-58.6273,33.2892,-178.5381,33.1534,61.4357
255335,3LG,10,1.254995,-26.6693,1.256076,-146.2466,1.246585,93.3914,990.9848,-44.0047,991.2976,-163.5583,980.7528,76.0759
255335,3LG,20,1.303592,-22.8261,1.302614,-142.4305,1.2945,97.1331,1029.3553,-40.1576,1027.9647,-159.7443,1018.5122,79.8156
255335,3LG,30,1.319101,-21.4761,1.317526,-141.0991,1.310041,98.4493,1041.5935,-38.8064,1039.7181,-158.4138,1030.7636,81.1317
255335,3LG,40,1.326686,-20.7886,1.324845,-140.4222,1.317691,99.1206,1047.5778,-38.1184,1045.4873,-157.7375,1036.7937,81.8029
182030,SLG,0,0.138373,-94.7802,2.082695,-145.5779,1.416333,131.4121,228.0871,-121.166,1689.4304,-162.4472,1105.7627,116.5606
182030,SLG,10,1.341642,-32.6839,1.450144,-132.4423,1.163059,101.5625,1069.9886,-50.2387,1146.8778,-149.1987,904.6528,83.9498
182030,SLG,20,1.355667,-25.7801,1.388051,-134.9725,1.249811,100.8549,1075.8724,-43.2227,1095.6577,-151.9828,978.4188,83.3567
182030,SLG,30,1.355755,-23.4241,1.371402,-136.0175,1.279912,100.8564,1074.1458,-40.8289,1082.1791,-153.1265,1003.8455,83.4133
182030,SLG,40,1.354895,-22.2404,1.364033,-136.5728,1.29501,100.8994,1072.5618,-39.6261,1076.2803,-153.7328,1016.5702,83.486
182030,LL,0,0.032501,-94.7072,0.152911,176.519,1.823725,108.6182,56.0322,-170.3805,232.3245,156.7664,1455.805,92.3428
182030,LL,10,1.157315,-33.2152,1.424313,-147.2172,1.285306,108.946,914.3226,-51.2924,1134.7854,-164.2705,1003.6405,92.1566
182030,LL,20,1.26366,-26.3783,1.391999,-142.3257,1.293366,104.7324,998.4226,-44.0514,1103.6404,-159.478,1012.7152,87.6138
182030,LL,30,1.294888,-23.8796,1.377466,-140.8847,1.305188,103.4256,1022.9357,-41.4308,1090.3524,-158.0845,1023.5019,86.2227
182030,LL,40,1.309469,-22.6008,1.369804,-140.2065,1.312619,102.8138,1034.3501,-40.0936,1083.427,-157.4329,1030.1686,85.5753
182030,3LG,0,0.089745,-45.5505,0.089889,-165.4446,0.089684,74.4947,108.212,-62.5411,108.3665,177.5776,107.8733,57.5274
182030,3LG,10,1.254925,-26.6038,1.255964,-146.1828,1.24653,93.4544,990.9281,-43.9391,991.2078,-163.4946,980.7109,76.1388
182030,3LG,20,1.303541,-22.8092,1.302559,-142.4142,1.294461,97.1495,1029.3154,-40.1407,1027.9214,-159.728,1018.4816,79.8321
182030,3LG,30,1.319073,-21.4684,1.317498,-141.0917,1.310019,98.4567,1041.5715,-38.7987,1039.6955,-158.4065,1030.7464,81.1391
182030,3LG,40,1.326669,-20.7843,1.324828,-140.4181,1.317677,99.1248,1047.5642,-38.1141,1045.4736,-157.7334,1036.7829,81.8071
182153,SLG,0,0.000408,-106.638,2.082324,-145.4486,1.412274,131.4339,2884.8582,74.2801,1689.5431,-162.4381,1105.692,116.5782
182153,SLG,10,1.264381,-37.3732,1.504765,-131.6182,1.117197,103.366,312.2311,-117.5545,1193.3943,-148.2833,864.5977,85.8448
182153,SLG,20,1.323443,-28.2303,1.409485,-134.1593,1.221358,101.1562,614.4273,-59.2341,1113.7331,-151.0907,954.0637,83.6513
182153,SLG,30,1.33584,-25.0897,1.384231,-135.3923,1.260326,100.968,759.6449,-49.8112,1092.9315,-152.4418,987.133,83.513
182153,SLG,40,1.340589,-23.4996,1.373012,-136.0747,1.280165,100.9502,834.887,-45.8836,1083.7771,-153.1879,1003.9219,83.5256
182153,LL,0,0.000422,-60.1405,0.000614,143.3783,1.827013,108.0284,3086.0245,120.1488,4370.2577,-36.5679,1461.0106,91.6229
182153,LL,10,1.042058,-35.9989,1.373573,-151.2683,1.314865,111.2181,272.0166,-114.329,328.0285,129.336,1028.2995,94.6302
182153,LL,20,1.202304,-28.6745,1.378278,-144.11,1.290335,106.1628,553.3165,-60.3218,637.7643,-174.5077,1009.6717,89.1679
182153,LL,30,1.25514,-25.5104,1.369476,-141.9963,1.29958,104.3299,710.0147,-50.5279,777.5195,-166.3596,1018.4116,87.1997
182153,LL,40,1.280214,-23.8555,1.364096,-141.0086,1.307178,103.463,794.351,-46.4262,848.5204,-163.1368,1025.3047,86.2746
182153,3LG,0,0.000585,-76.1853,0.000586,163.8942,0.000585,43.8479,4208.0888,103.8175,4219.4291,-16.103,4209.1832,-136.1494
182153,3LG,10,1.17901,-28.8996,1.181571,-148.461,1.171662,91.2378,280.2915,-110.7276,280.2933,129.6661,276.734,8.8078
182153,3LG,20,1.263572,-24.1397,1.263328,-143.714,1.254561,95.8643,579.629,-54.9933,578.8537,-174.5467,571.9382,64.953
182153,3LG,30,1.292102,-22.3975,1.290949,-141.9967,1.282973,97.5562,730.1461,-46.9969,728.8378,-166.5779,721.3538,72.939
182153,3LG,40,1.306337,-21.4969,1.30478,-141.1117,1.297246,98.4325,810.1009,-43.7872,808.481,-163.3856,800.8088,76.1356
182158,SLG,0,0.089046,-44.21,2.06156,-144.7058,1.3837,130.7124,2675.2414,74.6333,1680.3169,-162.5746,1108.613,116.0804
182158,SLG,10,1.26288,-38.0715,1.516522,-131.2892,1.10485,103.6973,308.1461,-123.6269,1212.1138,-148.0604,851.1301,86.7727
182158,SLG,20,1.326443,-28.6235,1.412414,-133.8503,1.213453,101.0653,603.1177,-60.9299,1120.988,-150.7793,944.9433,83.7974
182158,SLG,30,1.338725,-25.3643,1.385459,-135.1597,1.254978,100.8726,751.681,-50.8132,1097.1839,-152.1918,980.81,83.5626
182158,SLG,40,1.3431,-23.7092,1.373618,-135.8917,1.276165,100.8661,828.8855,-46.6028,1086.7001,-152.9855,999.1272,83.5452
182158,LL,0,0.092483,-35.8264,0.09762,-163.9602,1.804411,108.146,2811.3037,121.4835,4034.322,-35.4523,1456.8413,91.2636
182158,LL,10,1.04215,-35.5394,1.367425,-151.8868,1.324251,111.3718,283.1731,-109.8361,328.7424,123.3015,1044.3918,95.0279
182158,LL,20,1.196904,-29.1761,1.383981,-144.312,1.286614,106.5225,537.32,-61.8069,630.5411,-176.0491,1009.738,89.7767
182158,LL,30,1.252472,-25.8936,1.373731,-142.0945,1.295696,104.5405,697.8695,-51.4724,772.6118,-167.1831,1016.9112,87.5856
182158,LL,40,1.278625,-24.1578,1.367365,-141.0671,1.303805,103.6048,784.7961,-47.126,844.8695,-163.6938,1023.6499,86.5493
182158,3LG,0,0.098492,-39.2584,0.098829,-158.9985,0.098274,80.8846,3864.0074,105.077,3875.5261,-14.8312,3864.7029,-134.8857
182158,3LG,10,1.175434,-29.1206,1.178326,-148.6794,1.168226,91.0328,278.7503,-114.9734,279.0483,125.4474,275.4049,4.6046
182158,3LG,20,1.26178,-24.3287,1.261693,-143.8927,1.25266,95.6868,568.5867,-56.1934,568.0629,-175.734,560.9962,63.7746
182158,3LG,30,1.290973,-22.5418,1.289888,-142.1327,1.281718,97.4187,721.3328,-47.6901,720.198,-167.2609,712.5746,72.2597
182158,3LG,40,1.305525,-21.6121,1.304001,-141.2203,1.296321,98.322,802.9915,-44.2813,801.4987,-163.8716,793.708,75.6513
182162,SLG,0,0.164757,-41.8188,2.042101,-144.1398,1.36226,129.9844,2493.9479,74.6153,1671.1304,-162.7772,1113.3655,115.5791
182162,SLG,10,1.260791,-38.7666,1.52894,-130.9839,1.092603,104.0793,305.3926,-129.7527,1231.3934,-147.8905,838.4104,87.8012
182162,SLG,20,1.329487,-29.0159,1.415535,-133.5397,1.205407,100.9771,592.258,-62.6673,1128.5871,-150.4762,935.7167,83.9648
182162,SLG,30,1.341744,-25.6374,1.386729,-134.9238,1.249549,100.7748,744.1158,-51.8365,1101.6151,-151.9421,974.3744,83.6195
182162,SLG,40,1.345752,-23.9167,1.374215,-135.7057,1.272117,100.7786,823.2379,-47.3366,1089.7274,-152.7817,994.2423,83.5679
182162,LL,0,0.168635,-34.6364,0.177573,-161.1656,1.78431,108.181,2586.6181,122.507,3753.8332,-34.7519,1452.5663,90.8967
182162,LL,10,1.042573,-35.0918,1.361082,-152.4815,1.333582,111.5078,296.2983,-105.8659,331.4677,117.5207,1060.6441,95.3728
182162,LL,20,1.191261,-29.6691,1.389905,-144.5277,1.283216,106.9004,521.7869,-63.2632,623.9159,-177.6744,1010.4988,90.404
182162,LL,30,1.249784,-26.2767,1.378221,-142.1955,1.291825,104.7609,686.0877,-52.4183,768.227,-168.0443,1015.63,87.9872
182162,LL,40,1.277093,-24.4613,1.370819,-141.1251,1.300381,103.7515,775.5535,-47.8324,841.6651,-164.2729,1022.0721,86.8345
182162,3LG,0,0.17813,-37.3037,0.178776,-157.0084,0.177644,82.8531,3580.512,105.9537,3591.9491,-13.9436,3580.902,-134.0063
182162,3LG,10,1.172058,-29.33,1.175275,-148.8886,1.165029,90.838,278.7134,-119.0043,279.3075,121.4382,275.5877,0.6194
182162,3LG,20,1.260135,-24.5132,1.26022,-144.0672,1.250915,95.5144,558.4138,-57.4146,558.1524,-176.9431,550.9329,62.5763
182162,3LG,30,1.289965,-22.6835,1.288954,-142.2659,1.280583,97.2842,713.111,-48.3964,712.1575,-167.9569,704.3871,71.5682
182162,3LG,40,1.304815,-21.7255,1.303325,-141.3268,1.295495,98.2134,796.3342,-44.7852,794.9731,-164.3671,787.0572,75.1579
